Circuit: * C:\Users\J\Documents\LTspiceXVII\Lab_01.asc

WARNING: Less than two connections to node N009.  This node is used by A5.
Direct Newton iteration for .op point succeeded.

Date: Sat Apr 25 00:21:03 2020
Total elapsed time: 0.094 seconds.

tnom = 27
temp = 27
method = modified trap
totiter = 2332
traniter = 2328
tranpoints = 1161
accept = 1144
rejected = 17
matrix size = 21
fillins = 0
solver = Normal
Matrix Compiler1:      28 opcodes  0.1/[0.1]/0.7
Matrix Compiler2: 935 bytes object code size  0.1/0.2/[0.1]

