Circuit: * C:\Users\J\Documents\LTspiceXVII\Lab_01_5.asc

WARNING: Specified period is not longer than the sum of Trise, Tfall, and Ton for v1.  Increasing period to 0.3
Direct Newton iteration for .op point succeeded.

Date: Sat Apr 25 02:07:15 2020
Total elapsed time: 0.117 seconds.

tnom = 27
temp = 27
method = modified trap
totiter = 2642
traniter = 2639
tranpoints = 1314
accept = 1252
rejected = 62
matrix size = 6
fillins = 0
solver = Normal
Matrix Compiler1:       7 opcodes  0.0/[0.0]/0.0
Matrix Compiler2: off  [0.0]/0.0/0.0

