Circuit: * C:\Users\J\Documents\LTspiceXVII\Lab_01_12.asc

WARNING: Less than two connections to node N010.  This node is used by A7.
Direct Newton iteration for .op point succeeded.

Date: Sat Apr 25 00:45:56 2020
Total elapsed time: 0.213 seconds.

tnom = 27
temp = 27
method = modified trap
totiter = 2337
traniter = 2332
tranpoints = 1161
accept = 1144
rejected = 17
matrix size = 23
fillins = 0
solver = Normal
Matrix Compiler1: 456 bytes object code size  0.3/0.2/[0.1]
Matrix Compiler2: 1013 bytes object code size  0.2/0.4/[0.2]

