Circuit: * C:\Users\J\Documents\LTspiceXVII\Lab_01_6.asc

Direct Newton iteration failed to find .op point.  (Use ".option noopiter" to skip.)
Starting Gmin stepping
Gmin = 10
Gmin = 1.07374
vernier = 0.5
vernier = 0.25
vernier = 0.125
vernier = 0.0625
Gmin = 0.995033
vernier = 0.03125
vernier = 0.015625
vernier = 0.0078125
vernier = 0.00390625
Gmin = 0.999816
vernier = 0.00195313
vernier = 0.000976563
vernier = 0.000488281
Gmin = 0
Gmin stepping failed

Starting source stepping with srcstepmethod=0
Could not converge to DC with sources off!
Starting source stepping with srcstepmethod=1
Could not converge to DC with sources off!
Pseudo Transient failed in finding the operating point at 0 s.
Trouble finding operating point....skipping operating point for Transient analysis.
Changing Tseed to 9.76562e-009
Changing Tseed to 9.76563e-011
Changing Tseed to 9.76562e-008
Changing Tseed to 9.76562e-012
Changing Tseed to 9.76563e-007
Changing Tseed to 9.76562e-013
Changing Tseed to 9.76562e-006
Changing Tseed to 9.76563e-014
Changing Tseed to 9.76563e-005
to 0.000195313

Date: Sat Apr 25 01:58:25 2020
Total elapsed time: 0.300 seconds.

tnom = 27
temp = 27
method = modified trap
totiter = 31366
traniter = 2695
tranpoints = 1224
accept = 1152
rejected = 274
matrix size = 15
fillins = 0
solver = Normal
Matrix Compiler1: 236 bytes object code size  0.1/0.0/[0.0]
Matrix Compiler2: off  [0.1]/0.2/0.1

